java/SFINA/configuration_files/experiment-RateReductionCase30/output/time_11/iteration_2/flow/links.txt
id,current,real_power_from,reactive_power_from,real_power_to,reactive_power_to,resistance,reactance,susceptance,rateA,rateB,rateC,ratio,angle,angmin,angmax
1,0.0,11.871755998734958,-5.405188969118946,-11.840518180459354,2.498902423945622,0.02,0.06,0.03,130.0,130.0,98.52157682317589,0.0,0.0,-360.0,360.0
2,0.0,15.598767289721337,4.074455719811176,-15.464231468815731,-5.529376517882217,0.05,0.19,0.02,130.0,130.0,98.52157682317589,0.0,0.0,-360.0,360.0
3,0.0,16.405240680522894,5.235546351517409,-16.220432304470208,-6.672036518326579,0.06,0.17,0.02,65.0,65.0,49.260788411587946,0.0,0.0,-360.0,360.0
4,0.0,13.064231468815526,4.329376517881042,-13.044626201651255,-4.250955449223965,0.01,0.04,0.0,130.0,130.0,98.52157682317589,0.0,0.0,-360.0,360.0
5,0.0,13.990145395266115,4.531638818381913,-13.876983797167258,-6.043837598901521,0.05,0.2,0.02,130.0,130.0,98.52157682317589,0.0,0.0,-360.0,360.0
6,0.0,20.715132104670086,7.466939944144831,-20.41464864259107,-8.511953316355692,0.06,0.18,0.02,65.0,65.0,49.260788411587946,0.0,0.0,-360.0,360.0
7,0.0,23.035604463440134,11.45023760412119,-22.966680660242957,-11.174542391332484,0.01,0.04,0.0,90.0,90.0,68.20724549296793,0.0,0.0,-360.0,360.0
8,0.0,13.87698379716722,6.227158181755451,-13.753860854719235,-6.8817263817475505,0.05,0.12,0.01,70.0,70.0,53.05007982786395,0.0,0.0,-360.0,360.0
9,0.0,9.076431514838013,3.158180715771418,-9.04613914528056,-4.01827361825228,0.03,0.08,0.01,130.0,130.0,98.52157682317589,0.0,0.0,-360.0,360.0
10,0.0,24.822309914696046,24.428096383289432,-24.694245778648185,-23.915839839098002,0.01,0.04,0.0,32.0,32.0,24.25146506416637,0.0,0.0,-360.0,360.0
11,0.0,6.049373421727446,-3.4510874508475813,-6.049373421727446,3.5587094682861835,0.0,0.21,0.0,65.0,65.0,49.260788411587946,0.0,0.0,-360.0,360.0
12,0.0,3.456784812415681,-1.9720499719129099,-3.456784812415681,2.065761660566931,0.0,0.56,0.0,32.0,32.0,24.25146506416637,0.0,0.0,-360.0,360.0
13,0.0,0.0,0.0,0.0,0.0,0.0,0.21,0.0,65.0,65.0,49.260788411587946,0.0,0.0,-360.0,360.0
14,0.0,6.04937342172742,-3.5587094682863563,-6.04937342172742,3.6150829059922915,0.0,0.11,0.0,65.0,65.0,49.260788411587946,0.0,0.0,-360.0,360.0
15,0.0,-1.3705459573184706,-2.1272456365700103,1.3705459573184704,2.1445865818355396,0.0,0.26,0.0,65.0,65.0,49.260788411587946,0.0,0.0,-360.0,360.0
16,0.0,-36.999999999999986,-9.230233026657453,36.999999999999986,11.326436454519012,0.0,0.14,0.0,65.0,65.0,49.260788411587946,0.0,0.0,-360.0,360.0
17,0.0,5.4354692917176495,0.850362636716027,-5.398072093494749,-0.7693353738997438,0.12,0.26,0.0,32.0,32.0,24.25146506416637,0.0,0.0,-360.0,360.0
18,0.0,9.677152982653606,-1.1488003102150959,-9.608706207422225,1.2759157499305152,0.07,0.13,0.0,32.0,32.0,24.25146506416637,0.0,0.0,-360.0,360.0
19,0.0,9.316831768310282,-0.1159158816790553,-9.236381346876474,0.29469459597641073,0.09,0.2,0.0,32.0,32.0,24.25146506416637,0.0,0.0,-360.0,360.0
20,0.0,-0.8019279065052867,-0.8306646261001249,0.8050020934205183,0.8334593414776081,0.22,0.2,0.0,16.0,16.0,12.125732532083186,0.0,0.0,-360.0,360.0
21,0.0,5.736381346876467,-2.0946945959765775,-5.705151702497676,2.168865001376206,0.08,0.19,0.0,16.0,16.0,12.125732532083186,0.0,0.0,-360.0,360.0
22,0.0,9.159511539156894,0.7617896049450292,-9.06280291865071,-0.5683723639326658,0.11,0.22,0.0,16.0,16.0,12.125732532083186,0.0,0.0,-360.0,360.0
23,0.0,5.862802918650764,-0.33162763606743345,-5.8407436143684155,0.3794227953458562,0.06,0.13,0.0,16.0,16.0,12.125732532083186,0.0,0.0,-360.0,360.0
24,0.0,-3.65925638563189,-3.7794227953459427,3.6681662614671735,3.800212505628267,0.03,0.07,0.0,32.0,32.0,24.25146506416637,0.0,0.0,-360.0,360.0
25,0.0,5.920565005147758,4.622476240883558,-5.8681662614669605,-4.500212505628368,0.09,0.21,0.0,32.0,32.0,24.25146506416637,0.0,0.0,-360.0,360.0
26,0.0,3.3182244354474832,8.031201369229546,-3.294848297502382,-7.968865001375942,0.03,0.08,0.0,32.0,32.0,24.25146506416637,0.0,0.0,-360.0,360.0
27,0.0,-1.9473648213232502,-11.780557260021629,1.991501864900089,11.883543695034254,0.03,0.07,0.0,32.0,32.0,24.25146506416637,0.0,0.0,-360.0,360.0
28,0.0,-3.5852663851287923,-8.553964916650344,3.647405109480264,8.68711932597493,0.07,0.15,0.0,32.0,32.0,24.25146506416637,0.0,0.0,-360.0,360.0
29,0.0,-19.491501864900425,-23.08354369503392,19.583997634428975,23.268535234091015,0.01,0.02,0.0,32.0,32.0,24.25146506416637,0.0,0.0,-360.0,360.0
30,0.0,-8.555807425155143,-5.371164696353316,8.662014263712564,5.583578373468159,0.1,0.2,0.0,16.0,16.0,12.125732532083186,0.0,0.0,-360.0,360.0
31,0.0,-1.641402743909166,7.489464223818171,1.7119462767022438,-7.383648924628552,0.12,0.18,0.0,16.0,16.0,12.125732532083186,0.0,0.0,-360.0,360.0
32,0.0,7.337985736287421,0.7699412498122439,-7.267215238835066,-0.6229563704881194,0.13,0.27,0.0,16.0,16.0,12.125732532083186,0.0,0.0,-360.0,360.0
33,0.0,-3.1447310378672917,1.3456953917228989,3.167478933387503,-1.30618588897727,0.19,0.33,0.0,16.0,16.0,12.125732532083186,0.0,0.0,-360.0,360.0
34,0.0,3.5463957125683536,2.370521483103953,-3.4999999999999782,-2.3000000000000207,0.25,0.38,0.0,16.0,16.0,12.125732532083186,0.0,0.0,-360.0,360.0
35,0.0,-6.71387464595591,-1.064335594126659,6.765715650877241,1.1633047853401124,0.11,0.21,0.0,16.0,16.0,12.125732532083186,0.0,0.0,-360.0,360.0
36,0.0,-6.848007395338309,-10.873728732181382,6.848007395338309,11.599503476977462,0.0,0.4,0.0,65.0,65.0,49.260788411587946,0.0,0.0,-360.0,360.0
37,0.0,6.173882003297171,1.684027813330407,-6.083785912230416,-1.5120261849302368,0.22,0.42,0.0,16.0,16.0,12.125732532083186,0.0,0.0,-360.0,360.0
38,0.0,7.122394950487256,1.6745629326654132,-6.9510904037794665,-1.353366907588314,0.32,0.6,0.0,16.0,16.0,12.125732532083186,0.0,0.0,-360.0,360.0
39,0.0,3.683785912230418,0.6120261849302298,-3.648909596220525,-0.546633092411679,0.24,0.45,0.0,16.0,16.0,12.125732532083186,0.0,0.0,-360.0,360.0
40,0.0,-29.99999999999663,-29.999999999997804,31.41053210436996,33.04482202720913,0.06,0.2,0.02,32.0,32.0,24.25146506416637,0.0,0.0,-360.0,360.0
41,0.0,24.798739553852506,21.951452414676442,-24.562524709033962,-22.171093295026488,0.02,0.06,0.01,32.0,32.0,24.25146506416637,0.0,0.0,-360.0,360.0
